<?xml version="1.0" encoding="UTF-8"?>

<!-- generated on 2025-04-10 18:32:22.569144 by randomTrips.py v1_22_0+0002-63e50f52594
<configuration>
    <net-file value="C:\Users\MSI-PC\Sumo\2025-02-26-11-01-23\osm.net.xml"/>
    <output-trip-file value="C:\Users\MSI-PC\Sumo\2025-02-26-11-01-23\cars.rou.xml"/>
    <prefix value="car_"/>
    <vehicle-class value="passenger"/>
    <end value="2500.0"/>
    <period value="0.125"/>
</configuration>
-->

<routes xmlns:xsi="http://www.w3.org/2001/XMLSchema-instance" xsi:noNamespaceSchemaLocation="http://sumo.dlr.de/xsd/routes_file.xsd">
    <vType id="car__passenger" vClass="passenger"/>
    <trip id="car_0" depart="0.00" from="324504942#5" to="-1167132081#3" type="car__passenger"/>
    <trip id="car_1" depart="0.12" from="-763299998#0" to="-549325634#45" type="car__passenger"/>
    <trip id="car_2" depart="0.25" from="497530287#2" to="406705351#5" type="car__passenger"/>
    <trip id="car_3" depart="0.38" from="771191490#0" to="-163764373#4" type="car__passenger"/>
    <trip id="car_4" depart="0.50" from="-772090152#3" to="-1241012497#21" type="car__passenger"/>
    <trip id="car_5" depart="0.62" from="-475148323#2" to="1264550259#8" type="car__passenger"/>
    <trip id="car_6" depart="0.75" from="-1173358241" to="-475111339#65" type="car__passenger"/>
    <trip id="car_7" depart="0.88" from="328176939#0" to="162684636#1" type="car__passenger"/>
    <trip id="car_8" depart="1.00" from="-484603228#6" to="230922779#2" type="car__passenger"/>
    <trip id="car_9" depart="1.12" from="763527513#1" to="-1103815863" type="car__passenger"/>
    <trip id="car_10" depart="1.25" from="763352725#0" to="475132132#5" type="car__passenger"/>
    <trip id="car_11" depart="1.38" from="-770105652#4" to="-363297781#0" type="car__passenger"/>
    <trip id="car_12" depart="1.50" from="773919728#0" to="-770545130#0" type="car__passenger"/>
    <trip id="car_13" depart="1.62" from="-163768605#2" to="-163782558#12" type="car__passenger"/>
    <trip id="car_14" depart="1.75" from="769900385" to="324237848" type="car__passenger"/>
    <trip id="car_15" depart="1.88" from="763521717#1" to="597962251#0" type="car__passenger"/>
    <trip id="car_16" depart="2.00" from="126341464#4" to="776729479#16" type="car__passenger"/>
    <trip id="car_17" depart="2.12" from="-771207827#0" to="162825704#0" type="car__passenger"/>
    <trip id="car_18" depart="2.25" from="769593842#0" to="330651563#5" type="car__passenger"/>
    <trip id="car_19" depart="2.38" from="770116644#0" to="163793841#15" type="car__passenger"/>
    <trip id="car_20" depart="2.50" from="406705044#1" to="-126480394#4" type="car__passenger"/>
    <trip id="car_21" depart="2.62" from="-52640014#1" to="-769561570" type="car__passenger"/>
    <trip id="car_22" depart="2.75" from="-162813665#1" to="-606908627#0" type="car__passenger"/>
    <trip id="car_23" depart="2.88" from="-163782563#16" to="-769243743#2" type="car__passenger"/>
    <trip id="car_24" depart="3.00" from="324237757#2" to="-771255537#3" type="car__passenger"/>
    <trip id="car_25" depart="3.12" from="-770589471#7" to="-484603226#4" type="car__passenger"/>
    <trip id="car_26" depart="3.25" from="-742403595" to="773018083#0" type="car__passenger"/>
    <trip id="car_27" depart="3.38" from="326713783#4" to="324756076#10" type="car__passenger"/>
    <trip id="car_28" depart="3.50" from="-375214506#6" to="597644690#5" type="car__passenger"/>
    <trip id="car_29" depart="3.62" from="-366813434#8" to="-771540817#1" type="car__passenger"/>
    <trip id="car_30" depart="3.75" from="818951717#2" to="363297966#0" type="car__passenger"/>
    <trip id="car_31" depart="3.88" from="1319216316#0" to="444080208#2" type="car__passenger"/>
    <trip id="car_32" depart="4.00" from="769871042#3" to="763300018#5" type="car__passenger"/>
    <trip id="car_33" depart="4.12" from="-527708015#0" to="-1254070108#2" type="car__passenger"/>
    <trip id="car_34" depart="4.25" from="-769814538#0" to="-763322918#11" type="car__passenger"/>
    <trip id="car_35" depart="4.38" from="-475111365" to="773086064#1" type="car__passenger"/>
    <trip id="car_36" depart="4.50" from="770548994#0" to="-770088409#0" type="car__passenger"/>
    <trip id="car_37" depart="4.62" from="331977112#0" to="-772090173#7" type="car__passenger"/>
    <trip id="car_38" depart="4.75" from="771523143" to="1113532332" type="car__passenger"/>
    <trip id="car_39" depart="4.88" from="-742399852#0" to="-71375370#2" type="car__passenger"/>
    <trip id="car_40" depart="5.00" from="1347267038" to="-763300014#5" type="car__passenger"/>
    <trip id="car_41" depart="5.12" from="162816089#3" to="771273666#1" type="car__passenger"/>
    <trip id="car_42" depart="5.25" from="-771501619" to="-532537954#4" type="car__passenger"/>
    <trip id="car_43" depart="5.38" from="894890068" to="1265050015#8" type="car__passenger"/>
    <trip id="car_44" depart="5.50" from="-163768577#1" to="-126480401#16" type="car__passenger"/>
    <trip id="car_45" depart="5.62" from="-163793851#0" to="350087734#2" type="car__passenger"/>
    <trip id="car_46" depart="5.75" from="744869124#0" to="-775149630#3" type="car__passenger"/>
    <trip id="car_47" depart="5.88" from="-1356853528#7" to="-771573957" type="car__passenger"/>
    <trip id="car_48" depart="6.00" from="894630888#1" to="1357837707" type="car__passenger"/>
    <trip id="car_49" depart="6.12" from="776681336" to="770549011" type="car__passenger"/>
    <trip id="car_50" depart="6.25" from="-1117151734#2" to="546745205#6" type="car__passenger"/>
    <trip id="car_51" depart="6.38" from="375920060#0" to="148177978#26" type="car__passenger"/>
    <trip id="car_52" depart="6.50" from="-742403593#0" to="365322937#0" type="car__passenger"/>
    <trip id="car_53" depart="6.62" from="-163793864#4" to="-782032316#0" type="car__passenger"/>
    <trip id="car_54" depart="6.75" from="-774957416#1" to="774523652#0" type="car__passenger"/>
    <trip id="car_55" depart="6.88" from="770548978" to="-763300022#0" type="car__passenger"/>
    <trip id="car_56" depart="7.00" from="1117199930#0" to="-391153047#6" type="car__passenger"/>
    <trip id="car_57" depart="7.12" from="771501651#0" to="770589453#3" type="car__passenger"/>
    <trip id="car_58" depart="7.25" from="-769516545#1" to="362067994#9" type="car__passenger"/>
    <trip id="car_59" depart="7.38" from="163789065" to="-360538589#0" type="car__passenger"/>
    <trip id="car_60" depart="7.50" from="607248744#0" to="148611862#0" type="car__passenger"/>
    <trip id="car_61" depart="7.62" from="711243197#2" to="1357837728#1" type="car__passenger"/>
    <trip id="car_62" depart="7.75" from="-1017328138" to="-770116634#4" type="car__passenger"/>
    <trip id="car_63" depart="7.88" from="-1121636481" to="772292406" type="car__passenger"/>
    <trip id="car_64" depart="8.00" from="770555027#1" to="770088332#0" type="car__passenger"/>
    <trip id="car_65" depart="8.12" from="-769584952#0" to="-1328984309" type="car__passenger"/>
    <trip id="car_66" depart="8.25" from="770554991#1" to="773718835" type="car__passenger"/>
    <trip id="car_67" depart="8.38" from="-162827227#1" to="1226811781#15" type="car__passenger"/>
    <trip id="car_68" depart="8.50" from="-148177978#12" to="738404783#7" type="car__passenger"/>
    <trip id="car_69" depart="8.62" from="612520940#3" to="-324756104#5" type="car__passenger"/>
    <trip id="car_70" depart="8.75" from="-801559442#2" to="162816089#2" type="car__passenger"/>
    <trip id="car_71" depart="8.88" from="-742400279#3" to="771185314#0" type="car__passenger"/>
    <trip id="car_72" depart="9.00" from="-772090196#2" to="-497353115#12" type="car__passenger"/>
    <trip id="car_73" depart="9.12" from="1264550253#12" to="598230953" type="car__passenger"/>
    <trip id="car_74" depart="9.25" from="-443577695#3" to="-769904487#11" type="car__passenger"/>
    <trip id="car_75" depart="9.38" from="89331590#3" to="375214655#7" type="car__passenger"/>
    <trip id="car_76" depart="9.50" from="-773077118" to="1287616910#19" type="car__passenger"/>
    <trip id="car_77" depart="9.62" from="-254066945#1" to="-584424529#2" type="car__passenger"/>
    <trip id="car_78" depart="9.75" from="-770103720#4" to="230918780#25" type="car__passenger"/>
    <trip id="car_79" depart="9.88" from="-530835866#0" to="-534268021" type="car__passenger"/>
    <trip id="car_80" depart="10.00" from="-148235462#14" to="355982873#2" type="car__passenger"/>
    <trip id="car_81" depart="10.12" from="-527707503#4" to="771540802" type="car__passenger"/>
    <trip id="car_82" depart="10.25" from="770113668#1" to="-162684608#6" type="car__passenger"/>
    <trip id="car_83" depart="10.38" from="-597644686#0" to="396877654#0" type="car__passenger"/>
    <trip id="car_84" depart="10.50" from="-475132140#4" to="-326713783#5" type="car__passenger"/>
    <trip id="car_85" depart="10.62" from="772090200#7" to="163786011#14" type="car__passenger"/>
    <trip id="car_86" depart="10.75" from="-789796421#14" to="763523762" type="car__passenger"/>
    <trip id="car_87" depart="10.88" from="763522955#13" to="-441996849#8" type="car__passenger"/>
    <trip id="car_88" depart="11.00" from="-163778241#2" to="-776729479#5" type="car__passenger"/>
    <trip id="car_89" depart="11.12" from="-772090206#0" to="1117202692#24" type="car__passenger"/>
    <trip id="car_90" depart="11.25" from="475148319#7" to="406698804#1" type="car__passenger"/>
    <trip id="car_91" depart="11.38" from="791250081#1" to="-163782564#18" type="car__passenger"/>
    <trip id="car_92" depart="11.50" from="-771523776#1" to="-770549006#0" type="car__passenger"/>
    <trip id="car_93" depart="11.62" from="770116642#2" to="-737749069#4" type="car__passenger"/>
    <trip id="car_94" depart="11.75" from="-397900119#2" to="1023029331#4" type="car__passenger"/>
    <trip id="car_95" depart="11.88" from="-772090152#1" to="-769243766#2" type="car__passenger"/>
    <trip id="car_96" depart="12.00" from="-612520943#3" to="772079418#0" type="car__passenger"/>
    <trip id="car_97" depart="12.12" from="-773727197#1" to="770553807#5" type="car__passenger"/>
    <trip id="car_98" depart="12.25" from="126760238#0" to="-126760193#1" type="car__passenger"/>
    <trip id="car_99" depart="12.38" from="955616250" to="770096954#1" type="car__passenger"/>
    <trip id="car_100" depart="12.50" from="775878224#8" to="772090201" type="car__passenger"/>
    <trip id="car_101" depart="12.62" from="769904471" to="-376926813#4" type="car__passenger"/>
    <trip id="car_102" depart="12.75" from="1023029323#2" to="-497530286#6" type="car__passenger"/>
    <trip id="car_103" depart="12.88" from="-771501670" to="-1345174746" type="car__passenger"/>
    <trip id="car_104" depart="13.00" from="-771207838" to="801559455#1" type="car__passenger"/>
    <trip id="car_105" depart="13.12" from="-742400281#1" to="763523748#3" type="car__passenger"/>
    <trip id="car_106" depart="13.25" from="-775149617" to="-775161902#0" type="car__passenger"/>
    <trip id="car_107" depart="13.38" from="773919729#1" to="89331592" type="car__passenger"/>
    <trip id="car_108" depart="13.50" from="1299804717#1" to="53629184#0" type="car__passenger"/>
    <trip id="car_109" depart="13.62" from="-357444559#0" to="-769812673#1" type="car__passenger"/>
    <trip id="car_110" depart="13.75" from="775874290#2" to="163793859#2" type="car__passenger"/>
    <trip id="car_111" depart="13.88" from="126480383#2" to="697672009#1" type="car__passenger"/>
    <trip id="car_112" depart="14.00" from="-1287616910#2" to="196896042#20" type="car__passenger"/>
    <trip id="car_113" depart="14.12" from="1117199946#14" to="770537740#0" type="car__passenger"/>
    <trip id="car_114" depart="14.25" from="-360309740#3" to="775149613#0" type="car__passenger"/>
    <trip id="car_115" depart="14.38" from="-162814581#1" to="-429450139" type="car__passenger"/>
    <trip id="car_116" depart="14.50" from="163768594#2" to="406702052#4" type="car__passenger"/>
    <trip id="car_117" depart="14.62" from="-553267297#1" to="-324237757#0" type="car__passenger"/>
    <trip id="car_118" depart="14.75" from="771188781#7" to="-71375361#1" type="car__passenger"/>
    <trip id="car_119" depart="14.88" from="163768587#0" to="331215304#4" type="car__passenger"/>
    <trip id="car_120" depart="15.00" from="-772063078#5" to="196655977#5" type="car__passenger"/>
    <trip id="car_121" depart="15.12" from="1226816671" to="773018029#0" type="car__passenger"/>
    <trip id="car_122" depart="15.25" from="-457796577#7" to="532733168#1" type="car__passenger"/>
    <trip id="car_123" depart="15.38" from="-597962219" to="-772090176#1" type="car__passenger"/>
    <trip id="car_124" depart="15.50" from="362775291#0" to="-769836398#0" type="car__passenger"/>
    <trip id="car_125" depart="15.62" from="-769814578" to="711236950#50" type="car__passenger"/>
    <trip id="car_126" depart="15.75" from="-148611875#2" to="1112988011#6" type="car__passenger"/>
    <trip id="car_127" depart="15.88" from="955575474" to="894630880#1" type="car__passenger"/>
    <trip id="car_128" depart="16.00" from="-148611896#0" to="-497353138#1" type="car__passenger"/>
    <trip id="car_129" depart="16.12" from="-742400281#1" to="772362522#0" type="car__passenger"/>
    <trip id="car_130" depart="16.25" from="770561971" to="771207803#2" type="car__passenger"/>
    <trip id="car_131" depart="16.38" from="-770589460#1" to="-366815578#3" type="car__passenger"/>
    <trip id="car_132" depart="16.50" from="769799868" to="481050691#16" type="car__passenger"/>
    <trip id="car_133" depart="16.62" from="163793840#3" to="818355021#0" type="car__passenger"/>
    <trip id="car_134" depart="16.75" from="331650424#0" to="-1111728709" type="car__passenger"/>
    <trip id="car_135" depart="16.88" from="769244472#5" to="-769814587#3" type="car__passenger"/>
    <trip id="car_136" depart="17.00" from="355719082#2" to="773065112" type="car__passenger"/>
    <trip id="car_137" depart="17.12" from="-326204250#0" to="-231886316#1" type="car__passenger"/>
    <trip id="car_138" depart="17.25" from="-163792527#9" to="162827211#1" type="car__passenger"/>
    <trip id="car_139" depart="17.38" from="-763294604#11" to="324504924#2" type="car__passenger"/>
    <trip id="car_140" depart="17.50" from="475111328#12" to="-475132140#4" type="car__passenger"/>
    <trip id="car_141" depart="17.62" from="324237752#35" to="-763300032#1" type="car__passenger"/>
    <trip id="car_142" depart="17.75" from="1040772661#1" to="771540731" type="car__passenger"/>
    <trip id="car_143" depart="17.88" from="769896772#9" to="-163778236#38" type="car__passenger"/>
    <trip id="car_144" depart="18.00" from="-772090203#6" to="-769234795" type="car__passenger"/>
    <trip id="car_145" depart="18.12" from="-1047071310#0" to="761699322#3" type="car__passenger"/>
    <trip id="car_146" depart="18.25" from="324237792#2" to="-763300002#1" type="car__passenger"/>
    <trip id="car_147" depart="18.38" from="530834214#1" to="162825699#3" type="car__passenger"/>
    <trip id="car_148" depart="18.50" from="-772338531#1" to="-1117151720#0" type="car__passenger"/>
    <trip id="car_149" depart="18.62" from="-162684616#10" to="771238774#1" type="car__passenger"/>
    <trip id="car_150" depart="18.75" from="771255577#5" to="162811427#1" type="car__passenger"/>
    <trip id="car_151" depart="18.88" from="769812811#0" to="177973217#14" type="car__passenger"/>
    <trip id="car_152" depart="19.00" from="-348684255" to="-324756076#6" type="car__passenger"/>
    <trip id="car_153" depart="19.12" from="-769593838#1" to="771278291" type="car__passenger"/>
    <trip id="car_154" depart="19.25" from="763294604#4" to="770549009#0" type="car__passenger"/>
    <trip id="car_155" depart="19.38" from="771244617" to="-484606171#3" type="car__passenger"/>
    <trip id="car_156" depart="19.50" from="-612520941#6" to="-163789069#1" type="car__passenger"/>
    <trip id="car_157" depart="19.62" from="711253331#2" to="771242402#4" type="car__passenger"/>
    <trip id="car_158" depart="19.75" from="-771573962#0" to="331505835#2" type="car__passenger"/>
    <trip id="car_159" depart="19.88" from="-357443746#0" to="772292441#1" type="car__passenger"/>
    <trip id="car_160" depart="20.00" from="770124765#5" to="780078889#1" type="car__passenger"/>
    <trip id="car_161" depart="20.12" from="763530061#1" to="771226719#2" type="car__passenger"/>
    <trip id="car_162" depart="20.25" from="-1167132027#5" to="607246788#6" type="car__passenger"/>
    <trip id="car_163" depart="20.38" from="-770088369#1" to="772328433" type="car__passenger"/>
    <trip id="car_164" depart="20.50" from="763300060#2" to="770555064" type="car__passenger"/>
    <trip id="car_165" depart="20.62" from="763530060#4" to="-763315128#0" type="car__passenger"/>
    <trip id="car_166" depart="20.75" from="741810944#1" to="-163793862#3" type="car__passenger"/>
    <trip id="car_167" depart="20.88" from="770540453#1" to="770545144#1" type="car__passenger"/>
    <trip id="car_168" depart="21.00" from="-497353115#0" to="769814584#0" type="car__passenger"/>
    <trip id="car_169" depart="21.12" from="-775905542" to="-769871035" type="car__passenger"/>
    <trip id="car_170" depart="21.25" from="761699322#3" to="-597962251#0" type="car__passenger"/>
    <trip id="car_171" depart="21.38" from="-1167132007" to="-451805708#0" type="car__passenger"/>
    <trip id="car_172" depart="21.50" from="-769904449#0" to="770556054#2" type="car__passenger"/>
    <trip id="car_173" depart="21.62" from="775191781" to="-769243788#1" type="car__passenger"/>
    <trip id="car_174" depart="21.75" from="324753929#0" to="-772292478#2" type="car__passenger"/>
    <trip id="car_175" depart="21.88" from="782032330#1" to="147841300#3" type="car__passenger"/>
    <trip id="car_176" depart="22.00" from="772292478#0" to="-231885788#0" type="car__passenger"/>
    <trip id="car_177" depart="22.12" from="776391574" to="-391153047#2" type="car__passenger"/>
    <trip id="car_178" depart="22.25" from="774923692#1" to="-763300064#0" type="car__passenger"/>
    <trip id="car_179" depart="22.38" from="-163793838#0" to="-782032310#1" type="car__passenger"/>
    <trip id="car_180" depart="22.50" from="475148318#11" to="-770088344#2" type="car__passenger"/>
    <trip id="car_181" depart="22.62" from="163786013#4" to="126756949#1" type="car__passenger"/>
    <trip id="car_182" depart="22.75" from="-771246747" to="163792534#30" type="car__passenger"/>
    <trip id="car_183" depart="22.88" from="-698142413" to="497353133#0" type="car__passenger"/>
    <trip id="car_184" depart="23.00" from="-1023029333#3" to="772090179#0" type="car__passenger"/>
    <trip id="car_185" depart="23.12" from="126447917#5" to="53648992#14" type="car__passenger"/>
    <trip id="car_186" depart="23.25" from="532537954#2" to="397900264#6" type="car__passenger"/>
    <trip id="car_187" depart="23.38" from="-770561992" to="-148611890#1" type="car__passenger"/>
    <trip id="car_188" depart="23.50" from="356547505#0" to="-770236933#0" type="car__passenger"/>
    <trip id="car_189" depart="23.62" from="-769812680" to="770135167" type="car__passenger"/>
    <trip id="car_190" depart="23.75" from="475111339#44" to="-769836410" type="car__passenger"/>
    <trip id="car_191" depart="23.88" from="-769597015#4" to="-773080762#1" type="car__passenger"/>
    <trip id="car_192" depart="24.00" from="-771523767#0" to="-769795178#6" type="car__passenger"/>
    <trip id="car_193" depart="24.12" from="-324504937#1" to="-774938571#1" type="car__passenger"/>
    <trip id="car_194" depart="24.25" from="772348529" to="427197169" type="car__passenger"/>
    <trip id="car_195" depart="24.38" from="771255556#0" to="327172469#3" type="car__passenger"/>
    <trip id="car_196" depart="24.50" from="-769536119#0" to="162814581#1" type="car__passenger"/>
    <trip id="car_197" depart="24.62" from="-1015890433#3" to="-769536154#1" type="car__passenger"/>
    <trip id="car_198" depart="24.75" from="-772362527" to="163793864#6" type="car__passenger"/>
    <trip id="car_199" depart="24.88" from="331650853#0" to="1117199943#6" type="car__passenger"/>
    <trip id="car_200" depart="25.00" from="-773114590#0" to="-497530286#4" type="car__passenger"/>
    <trip id="car_201" depart="25.12" from="-792395510#1" to="771501619" type="car__passenger"/>
    <trip id="car_202" depart="25.25" from="763294604#12" to="-382415634#0" type="car__passenger"/>
    <trip id="car_203" depart="25.38" from="-162827209#1" to="126760250#0" type="car__passenger"/>
    <trip id="car_204" depart="25.50" from="324237744#1" to="-770540466" type="car__passenger"/>
    <trip id="car_205" depart="25.62" from="769245204#0" to="711236950#23" type="car__passenger"/>
    <trip id="car_206" depart="25.75" from="365676332#2" to="-584424529#18" type="car__passenger"/>
    <trip id="car_207" depart="25.88" from="-441735600#1" to="-1167132069#1" type="car__passenger"/>
    <trip id="car_208" depart="26.00" from="-606910105#1" to="1147292039#0" type="car__passenger"/>
    <trip id="car_209" depart="26.12" from="769904504#4" to="-162684620#3" type="car__passenger"/>
    <trip id="car_210" depart="26.25" from="-772049444#1" to="355258585#2" type="car__passenger"/>
    <trip id="car_211" depart="26.38" from="-427989772" to="475117004#0" type="car__passenger"/>
    <trip id="car_212" depart="26.50" from="1104012680#1" to="-71075393#8" type="car__passenger"/>
    <trip id="car_213" depart="26.62" from="33550695#4" to="-1051303953#2" type="car__passenger"/>
    <trip id="car_214" depart="26.75" from="584424529#10" to="758486032#1" type="car__passenger"/>
    <trip id="car_215" depart="26.88" from="-163789072#6" to="-775874277" type="car__passenger"/>
    <trip id="car_216" depart="27.00" from="-382413419#2" to="774923692#0" type="car__passenger"/>
    <trip id="car_217" depart="27.12" from="1175309709#1" to="-126760188#0" type="car__passenger"/>
    <trip id="car_218" depart="27.25" from="-612520939#5" to="770135189" type="car__passenger"/>
    <trip id="car_219" depart="27.38" from="-775161904" to="769536136#0" type="car__passenger"/>
    <trip id="car_220" depart="27.50" from="359836233#1" to="818376500#2" type="car__passenger"/>
    <trip id="car_221" depart="27.62" from="163768597#0" to="773919727#8" type="car__passenger"/>
    <trip id="car_222" depart="27.75" from="771191464" to="326205524#2" type="car__passenger"/>
    <trip id="car_223" depart="27.88" from="475111339#25" to="1264550253#75" type="car__passenger"/>
    <trip id="car_224" depart="28.00" from="769599206#2" to="162814580#0" type="car__passenger"/>
    <trip id="car_225" depart="28.12" from="771238787" to="651204984#1" type="car__passenger"/>
    <trip id="car_226" depart="28.25" from="-801559423" to="-763294604#4" type="car__passenger"/>
    <trip id="car_227" depart="28.38" from="-608817130#8" to="361134585#5" type="car__passenger"/>
    <trip id="car_228" depart="28.50" from="612520940#2" to="1317849819#0" type="car__passenger"/>
    <trip id="car_229" depart="28.62" from="231883847#0" to="-764847992#0" type="car__passenger"/>
    <trip id="car_230" depart="28.75" from="-162811424#1" to="-769536120" type="car__passenger"/>
    <trip id="car_231" depart="28.88" from="-761699322#2" to="-770103726" type="car__passenger"/>
    <trip id="car_232" depart="29.00" from="1264550253#46" to="-331650709#15" type="car__passenger"/>
    <trip id="car_233" depart="29.12" from="-534268080#0" to="475111339#91" type="car__passenger"/>
    <trip id="car_234" depart="29.25" from="429449124" to="-147532636#24" type="car__passenger"/>
    <trip id="car_235" depart="29.38" from="-771601419#1" to="162684613#7" type="car__passenger"/>
    <trip id="car_236" depart="29.50" from="-772054257#1" to="-475148318#13" type="car__passenger"/>
    <trip id="car_237" depart="29.62" from="-772076229" to="771540162#0" type="car__passenger"/>
    <trip id="car_238" depart="29.75" from="162816071#2" to="475116996#13" type="car__passenger"/>
    <trip id="car_239" depart="29.88" from="770103718#1" to="742403594" type="car__passenger"/>
    <trip id="car_240" depart="30.00" from="-771226729#1" to="-1084630315#0" type="car__passenger"/>
    <trip id="car_241" depart="30.12" from="-770537740#1" to="711243198#15" type="car__passenger"/>
    <trip id="car_242" depart="30.25" from="770096699#0" to="774255443" type="car__passenger"/>
    <trip id="car_243" depart="30.38" from="-772063074" to="696892303#0" type="car__passenger"/>
    <trip id="car_244" depart="30.50" from="126601459#14" to="324237817#1" type="car__passenger"/>
    <trip id="car_245" depart="30.62" from="-484603229#4" to="-532538599#0" type="car__passenger"/>
    <trip id="car_246" depart="30.75" from="-773073346#1" to="-1241007479#0" type="car__passenger"/>
    <trip id="car_247" depart="30.88" from="-770096969" to="432753508#6" type="car__passenger"/>
    <trip id="car_248" depart="31.00" from="-771559152" to="-375214731#2" type="car__passenger"/>
    <trip id="car_249" depart="31.12" from="-776921724#0" to="-324756082#0" type="car__passenger"/>
    <trip id="car_250" depart="31.25" from="230783530" to="-1203847261#3" type="car__passenger"/>
    <trip id="car_251" depart="31.38" from="-771270780" to="163778236#62" type="car__passenger"/>
    <trip id="car_252" depart="31.50" from="-1185933472#0" to="366817049" type="car__passenger"/>
    <trip id="car_253" depart="31.62" from="-326342224" to="1117151735#2" type="car__passenger"/>
    <trip id="car_254" depart="31.75" from="-1265047114#4" to="-771540733" type="car__passenger"/>
    <trip id="car_255" depart="31.88" from="-475116996#16" to="-770119908#6" type="car__passenger"/>
    <trip id="car_256" depart="32.00" from="606908627#0" to="-771540733" type="car__passenger"/>
    <trip id="car_257" depart="32.12" from="584464924#0" to="770088344#0" type="car__passenger"/>
    <trip id="car_258" depart="32.25" from="-656623528#14" to="-162827219#1" type="car__passenger"/>
    <trip id="car_259" depart="32.38" from="-1121636477#2" to="148611862#1" type="car__passenger"/>
    <trip id="car_260" depart="32.50" from="963999225#0" to="-771185314#0" type="car__passenger"/>
    <trip id="car_261" depart="32.62" from="328332427#5" to="763322918#9" type="car__passenger"/>
    <trip id="car_262" depart="32.75" from="331047349#2" to="711250852#13" type="car__passenger"/>
    <trip id="car_263" depart="32.88" from="773093825" to="-475111339#86" type="car__passenger"/>
    <trip id="car_264" depart="33.00" from="-1143062063#1" to="-360309877#6" type="car__passenger"/>
    <trip id="car_265" depart="33.12" from="-324504912#0" to="397090405#2" type="car__passenger"/>
    <trip id="car_266" depart="33.25" from="1357837708#1" to="-527707503#6" type="car__passenger"/>
    <trip id="car_267" depart="33.38" from="397900264#3" to="744869114" type="car__passenger"/>
    <trip id="car_268" depart="33.50" from="-371719534#3" to="324753915" type="car__passenger"/>
    <trip id="car_269" depart="33.62" from="549269803#18" to="-231789403" type="car__passenger"/>
    <trip id="car_270" depart="33.75" from="769509710#2" to="775843003#0" type="car__passenger"/>
    <trip id="car_271" depart="33.88" from="-163792534#27" to="-1176290380#0" type="car__passenger"/>
    <trip id="car_272" depart="34.00" from="-769795158" to="427197276" type="car__passenger"/>
    <trip id="car_273" depart="34.12" from="774164437" to="-772090203#4" type="car__passenger"/>
    <trip id="car_274" depart="34.25" from="462225175" to="-162813654#3" type="car__passenger"/>
    <trip id="car_275" depart="34.38" from="385086155#1" to="349833375" type="car__passenger"/>
    <trip id="car_276" depart="34.50" from="-163782564#29" to="763294606#17" type="car__passenger"/>
    <trip id="car_277" depart="34.62" from="770088228#1" to="324237752#56" type="car__passenger"/>
    <trip id="car_278" depart="34.75" from="-254066946#0" to="801559404#1" type="car__passenger"/>
    <trip id="car_279" depart="34.88" from="71375372#1" to="-770573494#0" type="car__passenger"/>
    <trip id="car_280" depart="35.00" from="-772348500" to="-771270809#12" type="car__passenger"/>
    <trip id="car_281" depart="35.12" from="1117751638" to="-770555024#0" type="car__passenger"/>
    <trip id="car_282" depart="35.25" from="769904498#3" to="769871002" type="car__passenger"/>
    <trip id="car_283" depart="35.38" from="-163787549#3" to="775149613#1" type="car__passenger"/>
    <trip id="car_284" depart="35.50" from="324237755#3" to="769904450" type="car__passenger"/>
    <trip id="car_285" depart="35.62" from="432752634#1" to="-782032335#1" type="car__passenger"/>
    <trip id="car_286" depart="35.75" from="497353112#12" to="775865771#6" type="car__passenger"/>
    <trip id="car_287" depart="35.88" from="-753516904#0" to="769593830" type="car__passenger"/>
    <trip id="car_288" depart="36.00" from="1263685590#1" to="1192330839#0" type="car__passenger"/>
    <trip id="car_289" depart="36.12" from="-773065330" to="599129011#3" type="car__passenger"/>
    <trip id="car_290" depart="36.25" from="-744869120#0" to="770248204#1" type="car__passenger"/>
    <trip id="car_291" depart="36.38" from="769603620#1" to="-163764371#1" type="car__passenger"/>
    <trip id="car_292" depart="36.50" from="770562027#0" to="-71075393#3" type="car__passenger"/>
    <trip id="car_293" depart="36.62" from="-776699422" to="324756103#1" type="car__passenger"/>
    <trip id="car_294" depart="36.75" from="-771207841" to="-1229731610#0" type="car__passenger"/>
    <trip id="car_295" depart="36.88" from="770088343" to="-397900264#2" type="car__passenger"/>